Circuit: * E:\EE2703_APL\Assignment_2\Draft4.asc

ERROR: Node N001 is floating and connected to current source I1

Direct Newton iteration for .op point succeeded.

Date: Sun Mar 20 16:07:12 2022
Total elapsed time: 0.231 seconds.

tnom = 27
temp = 27
method = modified trap
totiter = 80031
traniter = 80028
tranpoints = 40015
accept = 24019
rejected = 15996
matrix size = 3
fillins = 0
solver = Normal
Matrix Compiler1: 68 bytes object code size  0.1/0.0/[0.0]
Matrix Compiler2: 149 bytes object code size  0.1/0.0/[0.0]

